@<TRIPOS>MOLECULE
637563
 23 23 0 0 0
SMALL
GASTEIGER

@<TRIPOS>ATOM
      1 O           3.2018    0.5781    0.0532 O.3     1  LIG1       -0.4951
      2 C          -0.8635   -0.2451   -0.0982 C.ar    1  LIG1       -0.0251
      3 C          -0.4190    1.0770   -0.1021 C.ar    1  LIG1       -0.0511
      4 C           0.0582   -1.2906   -0.0432 C.ar    1  LIG1       -0.0511
      5 C           1.8689    0.3081    0.0038 C.ar    1  LIG1        0.1201
      6 C           0.9473    1.3536   -0.0512 C.ar    1  LIG1       -0.0194
      7 C           1.4244   -1.0140    0.0078 C.ar    1  LIG1       -0.0194
      8 C          -2.2879   -0.5338   -0.1520 C.2     1  LIG1       -0.0588
      9 C          -3.2833    0.3242    0.1679 C.2     1  LIG1       -0.0866
     10 C          -4.7361   -0.0196    0.1062 C.3     1  LIG1       -0.0465
     11 C           4.0892   -0.5379    0.1079 C.3     1  LIG1        0.0788
     12 H          -1.0982    1.9221   -0.1641 H       1  LIG1        0.0625
     13 H          -0.2705   -2.3272   -0.0380 H       1  LIG1        0.0625
     14 H           1.2884    2.3852   -0.0590 H       1  LIG1        0.0654
     15 H           2.0853   -1.8731    0.0493 H       1  LIG1        0.0654
     16 H          -2.5559   -1.5394   -0.4697 H       1  LIG1        0.0620
     17 H          -3.0689    1.3301    0.5163 H       1  LIG1        0.0569
     18 H          -5.1869    0.0874    1.0975 H       1  LIG1        0.0272
     19 H          -5.2504    0.6586   -0.5815 H       1  LIG1        0.0272
     20 H          -4.9044   -1.0454   -0.2366 H       1  LIG1        0.0272
     21 H           4.0173   -1.1537   -0.7951 H       1  LIG1        0.0660
     22 H           3.9437   -1.1231    1.0222 H       1  LIG1        0.0660
     23 H           5.1083   -0.1391    0.1425 H       1  LIG1        0.0660
@<TRIPOS>BOND
     1     1     5    1
     2     1    11    1
     3     2     3   ar
     4     2     4   ar
     5     2     8    1
     6     3     6   ar
     7     3    12    1
     8     4     7   ar
     9     4    13    1
    10     5     6   ar
    11     5     7   ar
    12     6    14    1
    13     7    15    1
    14     8     9    2
    15     8    16    1
    16     9    10    1
    17     9    17    1
    18    10    18    1
    19    10    19    1
    20    10    20    1
    21    11    21    1
    22    11    22    1
    23    11    23    1
